

;;____________________________________________________________________________________________________
[TITLE]
;;Project Title/Notes
INP file created by DSDAConvertToSwmmTools
version 0.0.1 EcoVista
Title/Notes:

;;____________________________________________________________________________________________________
[OPTIONS]
FLOW_UNITS           CMS
INFILTRATION         HORTON
FLOW_ROUTING         DYNWAVE
LINK_OFFSETS         DEPTH
MIN_SLOPE            0
ALLOW_PONDING        NO
SKIP_STEADY_STATE    NO
START_DATE           08/08/2015
START_TIME           00:00:00
REPORT_START_DATE    08/08/2015
REPORT_START_TIME    00:00:00
END_DATE             08/08/2016
END_TIME             00:00:00
SWEEP_START          01/01
SWEEP_END            12/31
DRY_DAYS             0
REPORT_STEP          00:05:00
WET_STEP             00:05:00
DRY_STEP             01:00:00
ROUTING_STEP         0:00:10
RULE_STEP            00:00:00
INERTIAL_DAMPING     PARTIAL
NORMAL_FLOW_LIMITED  BOTH
FORCE_MAIN_EQUATION  D-W
VARIABLE_STEP        0.75
LENGTHENING_STEP     0
MIN_SURFAREA         1.14
MAX_TRIALS           8
HEAD_TOLERANCE       0.0015
SYS_FLOW_TOL         5
LAT_FLOW_TOL         5
MINIMUM_STEP         0.5
THREADS              1

;;____________________________________________________________________________________________________
[EVAPORATION]
;;Data Source    Parameters
;;-------------- ----------------
TEMPERATURE 
DRY_ONLY         NO

;;____________________________________________________________________________________________________
[TEMPERATURE]
;;Data Element     Values     
FILE               "MukilteoTemperature.txt"
SNOWMELT           0 0 0 0 42.73 0

;;____________________________________________________________________________________________________
[RAINGAGES]
;;Name           Format    Interval SCF      Source    
;;-------------- --------- ------ ------ ----------
RainGage         VOLUME    00:15     1.0      FILE       "rainfall.txt" RainGage MM

;;____________________________________________________________________________________________________
[SUBCATCHMENTS]
S1 RainGage J1 15.68846 9.733426 790.9332 30.4009 0
S2 RainGage J1 12.16546 19.3504 695.4145 27.02831 0
S3 RainGage J1 27.02102 18.52879 1036.543 20.14654 0
S4 RainGage J1 25.31408 22.38895 1002.65 19.73209 0
S5 RainGage J1 33.85985 11.33895 1163.7 29.79305 0
S6 RainGage J1 23.25954 45.13312 957.6207 8.8893 0
S7 RainGage J1 28.70702 34.23728 1065.713 12.21998 0
S8 RainGage J1 31.08313 10.82899 1115 36.63944 0
S9 RainGage J1 12.7636 46.60472 709.2151 10.55815 0
S10 RainGage J1 10.45563 43.70512 642.1945 4.8144 0
S11 RainGage J1 24.86694 19.94187 997.34 19.4768 0
S12 RainGage J1 11.61261 39.15596 677.284 13.69455 0
S13 RainGage J1 23.84543 21.77638 976.64 19.74004 0
S14 RainGage J1 11.44681 17.50896 676.66 17.21961 0
S15 RainGage J1 16.15936 41.4149 798.6597 7.97029 0
S16 RainGage J1 33.32071 50.9596 1145.113 4.74471 0
S17 RainGage J1 13.21923 68.63828 719.2503 5.13431 0
S18 RainGage J1 19.97584 33.59103 889.0853 4.30135 0
S19 RainGage J1 15.5682 44.25078 783.5615 4.01636 0
S20 RainGage J1 13.3769 21.04861 731.49 22.48855 0
S21 RainGage J1 13.72107 47.343 740.84 17.99124 0
S22 RainGage J1 6.443516 39.43136 504.485 25.97499 0
S23 RainGage J1 12.39744 17.20157 704.2 33.57309 0
S24 RainGage J1 6.058974 49.06087 488.4517 6.95069 0
S25 RainGage J1 6.27552 46.86716 497.2768 5.02352 0
S26 RainGage J1 10.23725 22.88495 637.5663 27.49544 0
S27 RainGage J1 21.71177 35.27083 926.6639 4.18914 0
S28 RainGage J1 7.938776 53.1512 558.7495 20.70819 0
S29 RainGage J1 16.87607 23.47933 818.5176 23.10592 0
S30 RainGage J1 14.89583 39.57268 767.0247 10.37887 0
S31 RainGage J1 23.32594 30.21204 961.2684 22.80321 0
S32 RainGage J1 11.25246 56.10252 664.9073 7.49205 0
S33 RainGage J1 21.42494 38.80348 920.0045 5.011 0
S34 RainGage J1 15.98574 15.60505 797.6394 32.49061 0
S35 RainGage J1 27.55194 47.27225 1041.889 4.615 0
S36 RainGage J1 11.72485 54.29759 678.9145 7.20865 0
S37 RainGage J1 15.68102 5.665773 791.2629 46.43355 0
S38 RainGage J1 26.49474 31.16123 1029.4 24.2342 0
S39 RainGage J1 11.23279 28.5833 670.31 24.67124 0
S40 RainGage J1 11.70716 37.25736 684.32 33.91866 0
S41 RainGage J1 16.71381 21.01885 814.8941 31.43684 0
S42 RainGage J1 17.7194 22.93301 838.7932 25.33675 0
S43 RainGage J1 16.91954 23.9493 819.5096 29.81912 0
S44 RainGage J1 9.650865 46.43883 616.7171 10.10237 0
S45 RainGage J1 7.889938 40.1056 558.1835 11.36134 0
S46 RainGage J1 9.992958 22.91937 632.23 31.08771 0


;;____________________________________________________________________________________________________
[SUBAREAS]
;;Subcatchment   N-Imperv   N-Perv     S-Imperv   S-Perv     PctZero    RouteTo    PctRouted 
;;-------------- ---------- ---------- ---------- ---------- ---------- ---------- ----------
S1	0.015	0.24	0.06	0.3	25	OUTLET
S2	0.015	0.24	0.06	0.3	25	OUTLET
S3	0.015	0.24	0.06	0.3	25	OUTLET
S4	0.015	0.24	0.06	0.3	25	OUTLET
S5	0.015	0.24	0.06	0.3	25	OUTLET
S6	0.015	0.24	0.06	0.3	25	OUTLET
S7	0.015	0.24	0.06	0.3	25	OUTLET
S8	0.015	0.24	0.06	0.3	25	OUTLET
S9	0.015	0.24	0.06	0.3	25	OUTLET
S10	0.015	0.24	0.06	0.3	25	OUTLET
S11	0.015	0.24	0.06	0.3	25	OUTLET
S12	0.015	0.24	0.06	0.3	25	OUTLET
S13	0.015	0.24	0.06	0.3	25	OUTLET
S14	0.015	0.24	0.06	0.3	25	OUTLET
S15	0.015	0.24	0.06	0.3	25	OUTLET
S16	0.015	0.24	0.06	0.3	25	OUTLET
S17	0.015	0.24	0.06	0.3	25	OUTLET
S18	0.015	0.24	0.06	0.3	25	OUTLET
S19	0.015	0.24	0.06	0.3	25	OUTLET
S20	0.015	0.24	0.06	0.3	25	OUTLET
S21	0.015	0.24	0.06	0.3	25	OUTLET
S22	0.015	0.24	0.06	0.3	25	OUTLET
S23	0.015	0.24	0.06	0.3	25	OUTLET
S24	0.015	0.24	0.06	0.3	25	OUTLET
S25	0.015	0.24	0.06	0.3	25	OUTLET
S26	0.015	0.24	0.06	0.3	25	OUTLET
S27	0.015	0.24	0.06	0.3	25	OUTLET
S28	0.015	0.24	0.06	0.3	25	OUTLET
S29	0.015	0.24	0.06	0.3	25	OUTLET
S30	0.015	0.24	0.06	0.3	25	OUTLET
S31	0.015	0.24	0.06	0.3	25	OUTLET
S32	0.015	0.24	0.06	0.3	25	OUTLET
S33	0.015	0.24	0.06	0.3	25	OUTLET
S34	0.015	0.24	0.06	0.3	25	OUTLET
S35	0.015	0.24	0.06	0.3	25	OUTLET
S36	0.015	0.24	0.06	0.3	25	OUTLET
S37	0.015	0.24	0.06	0.3	25	OUTLET
S38	0.015	0.24	0.06	0.3	25	OUTLET
S39	0.015	0.24	0.06	0.3	25	OUTLET
S40	0.015	0.24	0.06	0.3	25	OUTLET
S41	0.015	0.24	0.06	0.3	25	OUTLET
S42	0.015	0.24	0.06	0.3	25	OUTLET
S43	0.015	0.24	0.06	0.3	25	OUTLET
S44	0.015	0.24	0.06	0.3	25	OUTLET
S45	0.015	0.24	0.06	0.3	25	OUTLET
S46	0.015	0.24	0.06	0.3	25	OUTLET

;;____________________________________________________________________________________________________
[INFILTRATION]
;;Subcatchment   Param1     Param2     Param3     Param4     Param5    
;;-------------- ---------- ---------- ---------- ---------- ----------
S1               36         10         4          7          0         
S2               36         10         4          7          0         
S3               36         10         4          7          0         
S4               36         10         4          7          0         
S5               36         10         4          7          0         
S6               36         10         4          7          0         
S7               36         10         4          7          0         
S8               36         10         4          7          0         
S9               36         10         4          7          0         
S10              36         10         4          7          0         
S11              36         10         4          7          0         
S12              36         10         4          7          0         
S13              36         10         4          7          0         
S14              36         10         4          7          0         
S15              36         10         4          7          0         
S16              36         10         4          7          0         
S17              36         10         4          7          0         
S18              36         10         4          7          0         
S19              36         10         4          7          0         
S20              36         10         4          7          0         
S21              36         10         4          7          0         
S22              36         10         4          7          0         
S23              36         10         4          7          0         
S24              36         10         4          7          0         
S25              36         10         4          7          0         
S26              36         10         4          7          0         
S27              36         10         4          7          0         
S28              36         10         4          7          0         
S29              36         10         4          7          0         
S30              36         10         4          7          0         
S31              36         10         4          7          0         
S32              36         10         4          7          0         
S33              36         10         4          7          0         
S34              36         10         4          7          0         
S35              36         10         4          7          0         
S36              36         10         4          7          0         
S37              36         10         4          7          0         
S38              36         10         4          7          0         
S39              36         10         4          7          0         
S40              36         10         4          7          0         
S41              36         10         4          7          0         
S42              36         10         4          7          0         
S43              36         10         4          7          0         
S44              36         10         4          7          0         
S45              36         10         4          7          0         
S46              36         10         4          7          0

;;____________________________________________________________________________________________________
[LID_CONTROLS]
;;Name           Type/Layer Parameters
;;-------------- ---------
BC1 			BC
BC1             SURFACE		200		0.3		0.1 	1.0 	0
BC1 			SOIL		800		0.5		0.2     0.15    100		40.0    3.5	
BC1				STORAGE		500		0.4		54       0

;;____________________________________________________________________________________________________
[LID_USAGE]
S1 BC1 10 50 0 50 16.42308 0
S2 BC1 15 50 0 50 16.02927 0
S3 BC1 32 50 0 50 16.07415 0
S4 BC1 36 50 0 50 15.99448 0
S6 BC1 67 50 0 50 16.18797 0
S7 BC1 63 50 0 50 16.20171 0
S9 BC1 38 50 0 50 16.21055 0
S10 BC1 29 50 0 50 16.08913 0
S12 BC1 29 50 0 50 16.14576 0
S15 BC1 43 50 0 50 16.27752 0
S16 BC1 108 50 0 50 16.16222 0
S17 BC1 57 50 0 50 16.05271 0
S18 BC1 43 50 0 50 16.19415 0
S19 BC1 44 50 0 50 16.19517 0
S22 BC1 16 50 0 50 15.94343 0
S24 BC1 19 50 0 50 16.23211 0
S25 BC1 19 50 0 50 16.39414 0
S26 BC1 15 50 0 50 16.12466 0
S27 BC1 49 50 0 50 16.17842 0
S28 BC1 27 50 0 50 16.27108 0
S29 BC1 25 50 0 50 15.89272 0
S30 BC1 38 50 0 50 16.32185 0
S31 BC1 45 50 0 50 16.11919 0
S32 BC1 40 50 0 50 16.12707 0
S33 BC1 53 50 0 50 16.13709 0
S34 BC1 16 50 0 50 16.11542 0
S35 BC1 83 50 0 50 16.17443 0
S36 BC1 40 50 0 50 15.98267 0
S37 BC1 6 50 0 50 16.91416 0
S41 BC1 23 50 0 50 16.47846 0
S42 BC1 26 50 0 50 16.11397 0
S43 BC1 26 50 0 50 16.16488 0
S44 BC1 28 50 0 50 15.85275 0
S45 BC1 20 50 0 50 16.00556 0


;;____________________________________________________________________________________________________
[JUNCTIONS]
;;Name           Elevation  MaxDepth   InitDepth  SurDepth   Aponded   
;;-------------- ---------- ---------- ---------- ---------- ----------
J1               1          2          0          0          10

;;____________________________________________________________________________________________________
[OUTFALLS]
;;Name           Elevation  Type       Stage Data       Gated    Route To        
;;-------------- ---------- ---------- ---------------- -------- ----------------
O1               0          FREE                        NO

;;____________________________________________________________________________________________________
[CONDUITS]
;;Name           From Node        To Node          Length     Roughness  InOffset   OutOffset  InitFlow   MaxFlow   
;;-------------- ---------------- ---------------- ---------- ---------- ---------- ---------- ---------- ----------
C1               J1               O1               620.37     0.013      0          0          0          0

;;____________________________________________________________________________________________________
[XSECTIONS]
;;Link           Shape        Geom1            Geom2      Geom3      Geom4      Barrels    Culvert   
;;-------------- ------------ ---------------- ---------- ---------- ---------- ---------- ----------
C1               RECT_CLOSED  2.43             3.6        0          0          1

;;____________________________________________________________________________________________________
[TIMESERIES]
;;Name           Date       Time       Value     
;;-------------- ---------- ---------- ----------
10mm                        00:00      10        
10mm                        01:00      0

;;____________________________________________________________________________________________________
[REPORT]
;;Reporting Options
SUBCATCHMENTS ALL
NODES ALL
LINKS ALL

;;____________________________________________________________________________________________________
[MAP]
DIMENSIONS 549854.390 5302816.361 552997.362 5306911.424
Units      None

;;____________________________________________________________________________________________________
[COORDINATES]
;;Node           X-Coord            Y-Coord           
;;-------------- ------------------ ------------------
J1               550241.341         5305579.643       
O1               550110.647         5304973.191

;;____________________________________________________________________________________________________
[VERTICES]
;;Link           X-Coord            Y-Coord           
;;-------------- ------------------ ------------------

;;____________________________________________________________________________________________________
[POLYGONS]
;;Subcatchment   X-Coord            Y-Coord           
;;-------------- ------------------ ------------------
S1               551320.882         5303436.344       
S1               551503.730         5303070.500       
S1               551501.500         5303070.500       
S1               551495.500         5303075.500       
S1               551485.500         5303075.500       
S1               551478.500         5303072.500       
S1               551470.500         5303073.500       
S1               551468.500         5303071.500       
S1               551468.500         5303069.500       
S1               551464.500         5303067.500       
S1               551454.500         5303067.500       
S1               551452.500         5303068.500       
S1               551447.500         5303066.500       
S1               551437.500         5303066.500       
S1               551434.500         5303062.500       
S1               551434.500         5303059.500       
S1               551425.500         5303050.500       
S1               551425.500         5303047.500       
S1               551410.500         5303047.500       
S1               551402.500         5303042.500       
S1               551395.500         5303041.500       
S1               551389.500         5303037.500       
S1               551384.500         5303037.500       
S1               551383.500         5303038.500       
S1               551381.500         5303037.500       
S1               551379.500         5303038.500       
S1               551373.500         5303037.500       
S1               551371.500         5303039.500       
S1               551368.500         5303039.500       
S1               551363.500         5303035.500       
S1               551343.500         5303037.500       
S1               551341.500         5303039.500       
S1               551335.500         5303040.500       
S1               551329.500         5303043.500       
S1               551323.500         5303043.500       
S1               551319.500         5303046.500       
S1               551316.500         5303052.500       
S1               551310.500         5303053.500       
S1               551306.500         5303057.500       
S1               551297.500         5303061.500       
S1               551292.500         5303062.500       
S1               551290.500         5303064.500       
S1               551283.500         5303065.500       
S1               551276.500         5303060.500       
S1               551273.500         5303054.500       
S1               551269.500         5303050.500       
S1               551264.500         5303047.500       
S1               551259.500         5303046.500       
S1               551253.500         5303042.500       
S1               551249.500         5303038.500       
S1               551247.500         5303034.500       
S1               551238.500         5303026.500       
S1               551237.500         5303024.500       
S1               551232.500         5303024.500       
S1               551230.500         5303022.500       
S1               551227.500         5303022.500       
S1               551226.500         5303021.500       
S1               551223.500         5303021.500       
S1               551222.500         5303022.500       
S1               551212.500         5303022.500       
S1               551210.500         5303020.500       
S1               551208.500         5303020.500       
S1               551203.500         5303017.500       
S1               551198.500         5303012.500       
S1               551195.500         5303006.500       
S1               551191.500         5303003.500       
S1               551185.500         5303003.500       
S1               551184.500         5303002.500       
S1               551183.500         5303003.500       
S1               551165.500         5303004.500       
S1               551163.500         5303010.500       
S1               551157.500         5303014.500       
S1               551156.500         5303016.500       
S1               551153.500         5303018.500       
S1               551151.500         5303018.500       
S1               551148.500         5303022.500       
S1               551142.500         5303027.500       
S1               551142.500         5303032.500       
S1               551140.500         5303034.500       
S1               551140.500         5303038.500       
S1               551135.500         5303043.500       
S1               551135.500         5303048.500       
S1               551132.500         5303051.500       
S1               551123.500         5303051.500       
S1               551118.500         5303054.500       
S1               551108.500         5303055.500       
S1               551097.500         5303062.500       
S1               551091.500         5303064.500       
S1               551088.500         5303068.500       
S1               551088.500         5303070.500       
S1               551084.500         5303073.500       
S1               551084.500         5303076.500       
S1               551082.500         5303076.500       
S1               551077.500         5303080.500       
S1               551069.500         5303081.500       
S1               551068.500         5303082.500       
S1               551059.500         5303082.500       
S1               551056.500         5303080.500       
S1               551048.500         5303081.500       
S1               551044.500         5303076.500       
S1               551042.500         5303076.500       
S1               551038.500         5303072.500       
S1               551032.500         5303063.500       
S1               551030.500         5303062.500       
S1               551031.500         5303050.500       
S1               551026.500         5303045.500       
S1               551026.500         5303043.500       
S1               551022.500         5303043.500       
S1               551017.500         5303039.500       
S1               551014.500         5303040.500       
S1               551012.500         5303039.500       
S1               551007.500         5303039.500       
S1               551004.500         5303036.500       
S1               550997.500         5303037.500       
S1               550994.500         5303040.500       
S1               550994.500         5303042.500       
S1               550987.500         5303049.500       
S1               550987.500         5303052.500       
S1               550984.500         5303058.500       
S1               550982.500         5303059.500       
S1               550963.500         5303058.500       
S1               550960.500         5303055.500       
S1               550955.500         5303053.500       
S1               550950.500         5303048.500       
S1               550943.500         5303048.500       
S1               550934.500         5303055.500       
S1               550933.500         5303058.500       
S1               550933.500         5303067.500       
S1               550935.500         5303071.500       
S1               550935.500         5303074.500       
S1               550932.500         5303077.500       
S1               550917.500         5303077.500       
S1               550912.500         5303082.500       
S1               550909.500         5303084.500       
S1               550907.500         5303084.500       
S1               550905.500         5303086.500       
S1               550904.500         5303090.500       
S1               550903.500         5303090.500       
S1               550900.500         5303094.500       
S1               550895.500         5303094.500       
S1               550892.500         5303096.500       
S1               550890.770         5303096.500       
S1               551182.729         5303453.003       
S1               551320.882         5303436.344       
S2               551182.729         5303453.003       
S2               550890.770         5303096.500       
S2               550887.500         5303096.500       
S2               550886.500         5303097.500       
S2               550868.500         5303096.500       
S2               550866.500         5303099.500       
S2               550864.500         5303100.500       
S2               550865.500         5303102.500       
S2               550863.500         5303102.500       
S2               550862.500         5303110.500       
S2               550860.500         5303114.500       
S2               550860.500         5303122.500       
S2               550861.500         5303124.500       
S2               550863.500         5303125.500       
S2               550863.500         5303127.500       
S2               550866.500         5303129.500       
S2               550870.500         5303134.500       
S2               550870.500         5303138.500       
S2               550868.500         5303140.500       
S2               550868.500         5303144.500       
S2               550866.500         5303146.500       
S2               550859.500         5303146.500       
S2               550858.500         5303147.500       
S2               550836.265         5303147.500       
S2               550874.671         5303785.003       
S2               551182.729         5303453.003       
S3               551829.105         5303847.985       
S3               551837.882         5303233.500       
S3               551832.500         5303233.500       
S3               551819.500         5303221.500       
S3               551814.500         5303221.500       
S3               551807.500         5303218.500       
S3               551804.500         5303218.500       
S3               551803.500         5303219.500       
S3               551784.500         5303218.500       
S3               551781.500         5303215.500       
S3               551781.500         5303211.500       
S3               551778.500         5303204.500       
S3               551772.500         5303201.500       
S3               551749.500         5303176.500       
S3               551744.500         5303176.500       
S3               551741.500         5303179.500       
S3               551736.500         5303179.500       
S3               551728.500         5303173.500       
S3               551725.500         5303172.500       
S3               551725.500         5303171.500       
S3               551709.500         5303158.500       
S3               551707.500         5303152.500       
S3               551704.500         5303149.500       
S3               551705.500         5303139.500       
S3               551703.500         5303137.500       
S3               551703.500         5303131.500       
S3               551701.500         5303128.500       
S3               551699.500         5303128.500       
S3               551691.500         5303123.500       
S3               551687.500         5303127.500       
S3               551687.500         5303129.500       
S3               551683.500         5303129.500       
S3               551676.500         5303122.500       
S3               551672.500         5303120.500       
S3               551662.500         5303120.500       
S3               551660.500         5303119.500       
S3               551657.500         5303112.500       
S3               551653.500         5303112.500       
S3               551648.500         5303110.500       
S3               551643.500         5303110.500       
S3               551637.500         5303115.500       
S3               551634.500         5303115.500       
S3               551630.500         5303113.500       
S3               551615.500         5303114.500       
S3               551611.500         5303110.500       
S3               551608.500         5303102.500       
S3               551606.500         5303102.500       
S3               551603.500         5303100.500       
S3               551600.500         5303100.500       
S3               551594.500         5303096.500       
S3               551582.500         5303097.500       
S3               551578.500         5303101.500       
S3               551576.500         5303100.500       
S3               551569.500         5303100.500       
S3               551568.500         5303099.500       
S3               551558.500         5303100.500       
S3               551555.500         5303098.500       
S3               551548.500         5303098.500       
S3               551543.500         5303096.500       
S3               551542.500         5303091.500       
S3               551536.500         5303084.500       
S3               551531.500         5303084.500       
S3               551522.500         5303076.500       
S3               551518.500         5303074.500       
S3               551514.500         5303074.500       
S3               551507.500         5303070.500       
S3               551503.730         5303070.500       
S3               551320.882         5303436.344       
S3               551570.845         5303773.415       
S3               551578.797         5303773.578       
S3               551584.498         5303776.514       
S3               551587.491         5303775.490       
S3               551588.570         5303775.512       
S3               551590.548         5303777.570       
S3               551597.736         5303777.424       
S3               551602.480         5303774.980       
S3               551605.671         5303773.432       
S3               551610.453         5303773.530       
S3               551614.760         5303772.055       
S3               551616.490         5303768.490       
S3               551617.510         5303766.510       
S3               551618.999         5303761.923       
S3               551622.103         5303758.940       
S3               551626.510         5303757.510       
S3               551628.490         5303756.490       
S3               551633.510         5303754.510       
S3               551638.044         5303752.174       
S3               551642.504         5303755.197       
S3               551675.510         5303756.490       
S3               551681.130         5303761.026       
S3               551687.495         5303785.531       
S3               551693.500         5303785.408       
S3               551700.396         5303785.549       
S3               551703.660         5303784.432       
S3               551708.239         5303784.525       
S3               551713.875         5303788.802       
S3               551712.450         5303791.568       
S3               551713.548         5303817.378       
S3               551721.510         5303818.490       
S3               551722.817         5303821.183       
S3               551725.510         5303822.490       
S3               551726.490         5303832.510       
S3               551727.579         5303837.829       